
OS:Version,
  {65dff089-0ab1-4fdf-b32c-e9a54eafaeb9}, !- Handle
  1.9.2;                                  !- Version Identifier

OS:PlantLoop,
  {41a6bbd4-2862-4d4c-8494-d7281e05b94f}, !- Handle
  Boiler Plant Loop,                      !- Name
  ,                                       !- Fluid Type
  ,                                       !- User Defined Fluid Type
  ,                                       !- Plant Equipment Operation Heating Load
  ,                                       !- Plant Equipment Operation Cooling Load
  ,                                       !- Primary Plant Equipment Operation Scheme
  {033436d7-12f9-4150-9fe7-975fd8b11660}, !- Loop Temperature Setpoint Node Name
  ,                                       !- Maximum Loop Temperature {C}
  ,                                       !- Minimum Loop Temperature {C}
  ,                                       !- Maximum Loop Flow Rate {m3/s}
  ,                                       !- Minimum Loop Flow Rate {m3/s}
  Autocalculate,                          !- Plant Loop Volume {m3}
  {46a80afd-88f2-419f-99a3-e7452847483d}, !- Plant Side Inlet Node Name
  {057fc204-e93d-4624-8504-b5264800790c}, !- Plant Side Outlet Node Name
  ,                                       !- Plant Side Branch List Name
  {9669245c-6c17-42c5-9c46-ed3691ae2cad}, !- Demand Side Inlet Node Name
  {3f397255-3726-474f-8606-83c154a86054}, !- Demand Side Outlet Node Name
  ,                                       !- Demand Side Branch List Name
  ,                                       !- Demand Side Connector List Name
  Optimal,                                !- Load Distribution Scheme
  ,                                       !- Availability Manager List Name
  ,                                       !- Plant Loop Demand Calculation Scheme
  ,                                       !- Common Pipe Simulation
  ;                                       !- Pressure Simulation Type

OS:Sizing:Plant,
  {698c2291-220f-43cf-98eb-e9e6f6e7deab}, !- Handle
  {41a6bbd4-2862-4d4c-8494-d7281e05b94f}, !- Plant or Condenser Loop Name
  Heating,                                !- Loop Type
  82,                                     !- Design Loop Exit Temperature {C}
  11,                                     !- Loop Design Temperature Difference {deltaC}
  NonCoincident,                          !- Sizing Option
  1,                                      !- Zone Timesteps in Averaging Window
  None;                                   !- Coincident Sizing Factor Mode

OS:Node,
  {def4cc90-9515-42b0-aee2-3f11b41d74db}, !- Handle
  Node 1,                                 !- Name
  {46a80afd-88f2-419f-99a3-e7452847483d}, !- Inlet Port
  {24ae9f5f-c5ff-4f25-ae35-f9ef8b91e69a}; !- Outlet Port

OS:Node,
  {033436d7-12f9-4150-9fe7-975fd8b11660}, !- Handle
  Node 2,                                 !- Name
  {65b791b3-7e97-491a-ab72-42e8e3123554}, !- Inlet Port
  {057fc204-e93d-4624-8504-b5264800790c}; !- Outlet Port

OS:Node,
  {31644967-1cb2-4ab4-b2cc-0eacbacef330}, !- Handle
  Node 3,                                 !- Name
  {390f6a50-b720-49ed-b4c8-42ffaaf57f5c}, !- Inlet Port
  {ec665e35-7124-4af6-b427-8907df5bdade}; !- Outlet Port

OS:Connector:Mixer,
  {089eb04c-53b8-4952-a13d-d5cd353773a5}, !- Handle
  Connector Mixer 1,                      !- Name
  {65b791b3-7e97-491a-ab72-42e8e3123554}, !- Outlet Branch Name
  {ec665e35-7124-4af6-b427-8907df5bdade}; !- Inlet Branch Name 1

OS:Connector:Splitter,
  {432d6f85-9d98-4ec3-afbf-94f42ca65843}, !- Handle
  Connector Splitter 1,                   !- Name
  {24ae9f5f-c5ff-4f25-ae35-f9ef8b91e69a}, !- Inlet Branch Name
  {390f6a50-b720-49ed-b4c8-42ffaaf57f5c}; !- Outlet Branch Name 1

OS:Connection,
  {46a80afd-88f2-419f-99a3-e7452847483d}, !- Handle
  {75dacf0f-bef4-4ad4-9c90-c5381a8d48fe}, !- Name
  {41a6bbd4-2862-4d4c-8494-d7281e05b94f}, !- Source Object
  13,                                     !- Outlet Port
  {def4cc90-9515-42b0-aee2-3f11b41d74db}, !- Target Object
  2;                                      !- Inlet Port

OS:Connection,
  {24ae9f5f-c5ff-4f25-ae35-f9ef8b91e69a}, !- Handle
  {11d1bc23-7311-4044-abfd-3dcfba803878}, !- Name
  {def4cc90-9515-42b0-aee2-3f11b41d74db}, !- Source Object
  3,                                      !- Outlet Port
  {432d6f85-9d98-4ec3-afbf-94f42ca65843}, !- Target Object
  2;                                      !- Inlet Port

OS:Connection,
  {390f6a50-b720-49ed-b4c8-42ffaaf57f5c}, !- Handle
  {02d482a8-ae5a-4b54-8b54-e083e23913df}, !- Name
  {432d6f85-9d98-4ec3-afbf-94f42ca65843}, !- Source Object
  3,                                      !- Outlet Port
  {31644967-1cb2-4ab4-b2cc-0eacbacef330}, !- Target Object
  2;                                      !- Inlet Port

OS:Connection,
  {ec665e35-7124-4af6-b427-8907df5bdade}, !- Handle
  {43cf2698-9a9c-42dc-b71e-bd9c3fed3e50}, !- Name
  {31644967-1cb2-4ab4-b2cc-0eacbacef330}, !- Source Object
  3,                                      !- Outlet Port
  {089eb04c-53b8-4952-a13d-d5cd353773a5}, !- Target Object
  3;                                      !- Inlet Port

OS:Connection,
  {65b791b3-7e97-491a-ab72-42e8e3123554}, !- Handle
  {8c2a59b2-e286-4323-8745-f300713f16d8}, !- Name
  {089eb04c-53b8-4952-a13d-d5cd353773a5}, !- Source Object
  2,                                      !- Outlet Port
  {033436d7-12f9-4150-9fe7-975fd8b11660}, !- Target Object
  2;                                      !- Inlet Port

OS:Connection,
  {057fc204-e93d-4624-8504-b5264800790c}, !- Handle
  {188cd20a-a357-41a9-9434-f4d7f5db6112}, !- Name
  {033436d7-12f9-4150-9fe7-975fd8b11660}, !- Source Object
  3,                                      !- Outlet Port
  {41a6bbd4-2862-4d4c-8494-d7281e05b94f}, !- Target Object
  14;                                     !- Inlet Port

OS:Node,
  {2e2c7e28-9e30-4866-aa74-8cea843c24cf}, !- Handle
  Node 4,                                 !- Name
  {9669245c-6c17-42c5-9c46-ed3691ae2cad}, !- Inlet Port
  {02327dfd-9932-4bdf-bef2-9989c0d652bf}; !- Outlet Port

OS:Node,
  {8ae3f643-70a6-4f4b-9c96-05830e34d658}, !- Handle
  Node 5,                                 !- Name
  {2fe7eb7d-f9cd-410c-9af3-70fcec7ffd3d}, !- Inlet Port
  {3f397255-3726-474f-8606-83c154a86054}; !- Outlet Port

OS:Node,
  {8c0f5217-d1ff-4993-8d6f-83ac7992291f}, !- Handle
  Node 6,                                 !- Name
  {9b828be4-e351-461a-bfa7-9ca0c132c1b3}, !- Inlet Port
  {b4cf38db-2efc-40ae-9bf7-aaa7b6dfec0e}; !- Outlet Port

OS:Connector:Mixer,
  {f0960e29-ae72-46d7-9562-436b59e02869}, !- Handle
  Connector Mixer 2,                      !- Name
  {2fe7eb7d-f9cd-410c-9af3-70fcec7ffd3d}, !- Outlet Branch Name
  {0f61b32e-3247-4fce-9867-e1c471f9e462}; !- Inlet Branch Name 1

OS:Connector:Splitter,
  {2facc064-9af6-4f18-8e9f-8bd1dc8e422e}, !- Handle
  Connector Splitter 2,                   !- Name
  {02327dfd-9932-4bdf-bef2-9989c0d652bf}, !- Inlet Branch Name
  {9b828be4-e351-461a-bfa7-9ca0c132c1b3}; !- Outlet Branch Name 1

OS:Connection,
  {9669245c-6c17-42c5-9c46-ed3691ae2cad}, !- Handle
  {04945923-47ea-40a2-8634-8e2e55da97fd}, !- Name
  {41a6bbd4-2862-4d4c-8494-d7281e05b94f}, !- Source Object
  16,                                     !- Outlet Port
  {2e2c7e28-9e30-4866-aa74-8cea843c24cf}, !- Target Object
  2;                                      !- Inlet Port

OS:Connection,
  {02327dfd-9932-4bdf-bef2-9989c0d652bf}, !- Handle
  {de00bd32-a3c3-46ca-b186-e5b3d38e1352}, !- Name
  {2e2c7e28-9e30-4866-aa74-8cea843c24cf}, !- Source Object
  3,                                      !- Outlet Port
  {2facc064-9af6-4f18-8e9f-8bd1dc8e422e}, !- Target Object
  2;                                      !- Inlet Port

OS:Connection,
  {9b828be4-e351-461a-bfa7-9ca0c132c1b3}, !- Handle
  {99ef933d-5e98-4f9b-9fe6-77030e827eee}, !- Name
  {2facc064-9af6-4f18-8e9f-8bd1dc8e422e}, !- Source Object
  3,                                      !- Outlet Port
  {8c0f5217-d1ff-4993-8d6f-83ac7992291f}, !- Target Object
  2;                                      !- Inlet Port

OS:Connection,
  {2fe7eb7d-f9cd-410c-9af3-70fcec7ffd3d}, !- Handle
  {2d853e40-2196-41ff-854a-4745a7936bce}, !- Name
  {f0960e29-ae72-46d7-9562-436b59e02869}, !- Source Object
  2,                                      !- Outlet Port
  {8ae3f643-70a6-4f4b-9c96-05830e34d658}, !- Target Object
  2;                                      !- Inlet Port

OS:Connection,
  {3f397255-3726-474f-8606-83c154a86054}, !- Handle
  {03e642a3-253f-4142-bd7e-8b4340c4fc4d}, !- Name
  {8ae3f643-70a6-4f4b-9c96-05830e34d658}, !- Source Object
  3,                                      !- Outlet Port
  {41a6bbd4-2862-4d4c-8494-d7281e05b94f}, !- Target Object
  17;                                     !- Inlet Port

OS:PlantLoop,
  {ef140ebb-720b-430a-9ecb-3b5bbefc95a2}, !- Handle
  DHW Plant Loop,                         !- Name
  ,                                       !- Fluid Type
  ,                                       !- User Defined Fluid Type
  ,                                       !- Plant Equipment Operation Heating Load
  ,                                       !- Plant Equipment Operation Cooling Load
  ,                                       !- Primary Plant Equipment Operation Scheme
  {b746fd36-cece-4e17-a7f7-5575392be0ac}, !- Loop Temperature Setpoint Node Name
  ,                                       !- Maximum Loop Temperature {C}
  ,                                       !- Minimum Loop Temperature {C}
  ,                                       !- Maximum Loop Flow Rate {m3/s}
  ,                                       !- Minimum Loop Flow Rate {m3/s}
  Autocalculate,                          !- Plant Loop Volume {m3}
  {0e0f7869-910e-4e24-a406-057c182e4442}, !- Plant Side Inlet Node Name
  {358d08fa-a8fb-4370-87cf-e63630a8a491}, !- Plant Side Outlet Node Name
  ,                                       !- Plant Side Branch List Name
  {8ed379e9-eac7-4e3e-933c-bd43ddeebdab}, !- Demand Side Inlet Node Name
  {13b53995-c1ad-4b17-83df-5afd2975e598}, !- Demand Side Outlet Node Name
  ,                                       !- Demand Side Branch List Name
  ,                                       !- Demand Side Connector List Name
  Optimal,                                !- Load Distribution Scheme
  ,                                       !- Availability Manager List Name
  ,                                       !- Plant Loop Demand Calculation Scheme
  ,                                       !- Common Pipe Simulation
  ;                                       !- Pressure Simulation Type

OS:Sizing:Plant,
  {2c39d178-e374-458d-8d5b-33596bba4791}, !- Handle
  {ef140ebb-720b-430a-9ecb-3b5bbefc95a2}, !- Plant or Condenser Loop Name
  Heating,                                !- Loop Type
  82,                                     !- Design Loop Exit Temperature {C}
  11,                                     !- Loop Design Temperature Difference {deltaC}
  NonCoincident,                          !- Sizing Option
  1,                                      !- Zone Timesteps in Averaging Window
  None;                                   !- Coincident Sizing Factor Mode

OS:Node,
  {a502e380-a6a2-42eb-8eb3-83322941b96d}, !- Handle
  Node 7,                                 !- Name
  {0e0f7869-910e-4e24-a406-057c182e4442}, !- Inlet Port
  {5181d4b7-2c49-41f8-9d0b-c62b3f7015e9}; !- Outlet Port

OS:Node,
  {b746fd36-cece-4e17-a7f7-5575392be0ac}, !- Handle
  Node 8,                                 !- Name
  {8b7011c1-a5d7-4854-96a9-d13cfb09df53}, !- Inlet Port
  {358d08fa-a8fb-4370-87cf-e63630a8a491}; !- Outlet Port

OS:Node,
  {04ad8db2-6eef-4dbf-843f-278e97fa27ae}, !- Handle
  Node 9,                                 !- Name
  {ec8072df-cec7-4bc1-9957-6ee5b111aa85}, !- Inlet Port
  {ce32d1ea-a529-4b74-858a-df485f93473d}; !- Outlet Port

OS:Connector:Mixer,
  {c3d28442-1a62-43c7-8d18-94c3074fb051}, !- Handle
  Connector Mixer 3,                      !- Name
  {8b7011c1-a5d7-4854-96a9-d13cfb09df53}, !- Outlet Branch Name
  {24ae562b-957a-4bda-8abb-89d6749d791c}; !- Inlet Branch Name 1

OS:Connector:Splitter,
  {383eed07-42dd-4119-abfa-5ba73388cb22}, !- Handle
  Connector Splitter 3,                   !- Name
  {5181d4b7-2c49-41f8-9d0b-c62b3f7015e9}, !- Inlet Branch Name
  {ec8072df-cec7-4bc1-9957-6ee5b111aa85}; !- Outlet Branch Name 1

OS:Connection,
  {0e0f7869-910e-4e24-a406-057c182e4442}, !- Handle
  {dc8dac5b-037f-452f-abb5-7769db866ec9}, !- Name
  {ef140ebb-720b-430a-9ecb-3b5bbefc95a2}, !- Source Object
  13,                                     !- Outlet Port
  {a502e380-a6a2-42eb-8eb3-83322941b96d}, !- Target Object
  2;                                      !- Inlet Port

OS:Connection,
  {5181d4b7-2c49-41f8-9d0b-c62b3f7015e9}, !- Handle
  {7c4caf3b-ee20-4d99-892f-d4b21bde9c55}, !- Name
  {a502e380-a6a2-42eb-8eb3-83322941b96d}, !- Source Object
  3,                                      !- Outlet Port
  {383eed07-42dd-4119-abfa-5ba73388cb22}, !- Target Object
  2;                                      !- Inlet Port

OS:Connection,
  {ec8072df-cec7-4bc1-9957-6ee5b111aa85}, !- Handle
  {8574e12c-f996-4847-8d14-a21a2cfc910e}, !- Name
  {383eed07-42dd-4119-abfa-5ba73388cb22}, !- Source Object
  3,                                      !- Outlet Port
  {04ad8db2-6eef-4dbf-843f-278e97fa27ae}, !- Target Object
  2;                                      !- Inlet Port

OS:Connection,
  {8b7011c1-a5d7-4854-96a9-d13cfb09df53}, !- Handle
  {67366db2-0ae8-47b6-82cd-3a772eb4f16d}, !- Name
  {c3d28442-1a62-43c7-8d18-94c3074fb051}, !- Source Object
  2,                                      !- Outlet Port
  {b746fd36-cece-4e17-a7f7-5575392be0ac}, !- Target Object
  2;                                      !- Inlet Port

OS:Connection,
  {358d08fa-a8fb-4370-87cf-e63630a8a491}, !- Handle
  {90f3bfb2-60a7-42ce-9b73-14a33a49abe6}, !- Name
  {b746fd36-cece-4e17-a7f7-5575392be0ac}, !- Source Object
  3,                                      !- Outlet Port
  {ef140ebb-720b-430a-9ecb-3b5bbefc95a2}, !- Target Object
  14;                                     !- Inlet Port

OS:Node,
  {3e9c1260-f503-41a3-b4f0-2fc71621b163}, !- Handle
  Node 10,                                !- Name
  {8ed379e9-eac7-4e3e-933c-bd43ddeebdab}, !- Inlet Port
  {d0021603-e2af-4f52-a87f-384c39848054}; !- Outlet Port

OS:Node,
  {ea2d4e3b-4b88-4866-8b68-593457948f8f}, !- Handle
  Node 11,                                !- Name
  {d5fa23ca-917e-4cc5-a3e7-6d828b2b54f2}, !- Inlet Port
  {13b53995-c1ad-4b17-83df-5afd2975e598}; !- Outlet Port

OS:Node,
  {bb4ab563-d71c-4cab-bae9-4b6255941296}, !- Handle
  Node 12,                                !- Name
  {9da69d10-c36a-44b2-baaa-c80324ae62a0}, !- Inlet Port
  {e9b98b83-bbca-43d9-98ad-87166945591b}; !- Outlet Port

OS:Connector:Mixer,
  {94070ace-de7b-410c-b8f3-498d0cdc90f4}, !- Handle
  Connector Mixer 4,                      !- Name
  {d5fa23ca-917e-4cc5-a3e7-6d828b2b54f2}, !- Outlet Branch Name
  {e9b98b83-bbca-43d9-98ad-87166945591b}; !- Inlet Branch Name 1

OS:Connector:Splitter,
  {772e195f-0f0b-40fa-9a46-ceaabe697ea7}, !- Handle
  Connector Splitter 4,                   !- Name
  {d0021603-e2af-4f52-a87f-384c39848054}, !- Inlet Branch Name
  {9da69d10-c36a-44b2-baaa-c80324ae62a0}; !- Outlet Branch Name 1

OS:Connection,
  {8ed379e9-eac7-4e3e-933c-bd43ddeebdab}, !- Handle
  {d800e5cc-58cb-4989-8978-16e7f8e196f6}, !- Name
  {ef140ebb-720b-430a-9ecb-3b5bbefc95a2}, !- Source Object
  16,                                     !- Outlet Port
  {3e9c1260-f503-41a3-b4f0-2fc71621b163}, !- Target Object
  2;                                      !- Inlet Port

OS:Connection,
  {d0021603-e2af-4f52-a87f-384c39848054}, !- Handle
  {9e230141-f50e-4a8b-b5da-3c1ba379abe3}, !- Name
  {3e9c1260-f503-41a3-b4f0-2fc71621b163}, !- Source Object
  3,                                      !- Outlet Port
  {772e195f-0f0b-40fa-9a46-ceaabe697ea7}, !- Target Object
  2;                                      !- Inlet Port

OS:Connection,
  {9da69d10-c36a-44b2-baaa-c80324ae62a0}, !- Handle
  {e9b95670-7046-4129-9c8d-3a8fdbaa7e1a}, !- Name
  {772e195f-0f0b-40fa-9a46-ceaabe697ea7}, !- Source Object
  3,                                      !- Outlet Port
  {bb4ab563-d71c-4cab-bae9-4b6255941296}, !- Target Object
  2;                                      !- Inlet Port

OS:Connection,
  {e9b98b83-bbca-43d9-98ad-87166945591b}, !- Handle
  {96a91419-7237-4558-a4e1-657ebee07df4}, !- Name
  {bb4ab563-d71c-4cab-bae9-4b6255941296}, !- Source Object
  3,                                      !- Outlet Port
  {94070ace-de7b-410c-b8f3-498d0cdc90f4}, !- Target Object
  3;                                      !- Inlet Port

OS:Connection,
  {d5fa23ca-917e-4cc5-a3e7-6d828b2b54f2}, !- Handle
  {af23146b-9d04-43b2-9a5a-13eefad0be17}, !- Name
  {94070ace-de7b-410c-b8f3-498d0cdc90f4}, !- Source Object
  2,                                      !- Outlet Port
  {ea2d4e3b-4b88-4866-8b68-593457948f8f}, !- Target Object
  2;                                      !- Inlet Port

OS:Connection,
  {13b53995-c1ad-4b17-83df-5afd2975e598}, !- Handle
  {a06cbe4d-3a84-49b1-a7cd-e7dd47470b7f}, !- Name
  {ea2d4e3b-4b88-4866-8b68-593457948f8f}, !- Source Object
  3,                                      !- Outlet Port
  {ef140ebb-720b-430a-9ecb-3b5bbefc95a2}, !- Target Object
  17;                                     !- Inlet Port

OS:WaterHeater:Mixed,
  {809da8b0-0467-4f88-b425-4aba3d578e04}, !- Handle
  Storage tank,                           !- Name
  0.3785,                                 !- Tank Volume {m3}
  {a61408c1-58a1-406f-985a-e8db6a77837d}, !- Setpoint Temperature Schedule Name
  2,                                      !- Deadband Temperature Difference {deltaC}
  82.22,                                  !- Maximum Temperature Limit {C}
  Cycle,                                  !- Heater Control Type
  845000,                                 !- Heater Maximum Capacity {W}
  ,                                       !- Heater Minimum Capacity {W}
  ,                                       !- Heater Ignition Minimum Flow Rate {m3/s}
  ,                                       !- Heater Ignition Delay {s}
  NaturalGas,                             !- Heater Fuel Type
  0.8,                                    !- Heater Thermal Efficiency
  ,                                       !- Part Load Factor Curve Name
  20,                                     !- Off Cycle Parasitic Fuel Consumption Rate {W}
  NaturalGas,                             !- Off Cycle Parasitic Fuel Type
  0.8,                                    !- Off Cycle Parasitic Heat Fraction to Tank
  ,                                       !- On Cycle Parasitic Fuel Consumption Rate {W}
  NaturalGas,                             !- On Cycle Parasitic Fuel Type
  ,                                       !- On Cycle Parasitic Heat Fraction to Tank
  Schedule,                               !- Ambient Temperature Indicator
  {82ad1090-0bd9-4860-b67e-788350ce8ca4}, !- Ambient Temperature Schedule Name
  ,                                       !- Ambient Temperature Thermal Zone Name
  ,                                       !- Ambient Temperature Outdoor Air Node Name
  6,                                      !- Off Cycle Loss Coefficient to Ambient Temperature {W/K}
  ,                                       !- Off Cycle Loss Fraction to Thermal Zone
  6,                                      !- On Cycle Loss Coefficient to Ambient Temperature {W/K}
  ,                                       !- On Cycle Loss Fraction to Thermal Zone
  ,                                       !- Peak Use Flow Rate {m3/s}
  ,                                       !- Use Flow Rate Fraction Schedule Name
  ,                                       !- Cold Water Supply Temperature Schedule Name
  {ce32d1ea-a529-4b74-858a-df485f93473d}, !- Use Side Inlet Node Name
  {e1735425-0deb-4886-9b80-fd151e6b9d17}, !- Use Side Outlet Node Name
  1,                                      !- Use Side Effectiveness
  {b4cf38db-2efc-40ae-9bf7-aaa7b6dfec0e}, !- Source Side Inlet Node Name
  {fa247f9c-cabe-40a8-8b8b-2cd2fb45cf7c}, !- Source Side Outlet Node Name
  1,                                      !- Source Side Effectiveness
  autosize,                               !- Use Side Design Flow Rate {m3/s}
  autosize,                               !- Source Side Design Flow Rate {m3/s}
  1.5;                                    !- Indirect Water Heating Recovery Time {hr}

OS:Schedule:Ruleset,
  {82ad1090-0bd9-4860-b67e-788350ce8ca4}, !- Handle
  Schedule Ruleset 1,                     !- Name
  {d1a14813-17fa-416b-999d-ba3bad5a7de1}, !- Schedule Type Limits Name
  {dc93af20-1f86-411f-aa93-d19e2a51dc09}; !- Default Day Schedule Name

OS:Schedule:Day,
  {dc93af20-1f86-411f-aa93-d19e2a51dc09}, !- Handle
  Schedule Day 1,                         !- Name
  {d1a14813-17fa-416b-999d-ba3bad5a7de1}, !- Schedule Type Limits Name
  ,                                       !- Interpolate to Timestep
  24,                                     !- Hour 1
  0,                                      !- Minute 1
  22;                                     !- Value Until Time 1

OS:ScheduleTypeLimits,
  {d1a14813-17fa-416b-999d-ba3bad5a7de1}, !- Handle
  Temperature,                            !- Name
  ,                                       !- Lower Limit Value {BasedOnField A4}
  ,                                       !- Upper Limit Value {BasedOnField A4}
  Continuous,                             !- Numeric Type
  Temperature;                            !- Unit Type

OS:Schedule:Ruleset,
  {a61408c1-58a1-406f-985a-e8db6a77837d}, !- Handle
  Schedule Ruleset 2,                     !- Name
  {d1a14813-17fa-416b-999d-ba3bad5a7de1}, !- Schedule Type Limits Name
  {5b9b814a-85e3-489e-8b41-23875c380fec}; !- Default Day Schedule Name

OS:Schedule:Day,
  {5b9b814a-85e3-489e-8b41-23875c380fec}, !- Handle
  Schedule Day 2,                         !- Name
  {d1a14813-17fa-416b-999d-ba3bad5a7de1}, !- Schedule Type Limits Name
  ,                                       !- Interpolate to Timestep
  24,                                     !- Hour 1
  0,                                      !- Minute 1
  60;                                     !- Value Until Time 1

OS:Node,
  {6c3e7b4e-2b99-44f4-9157-6d4f491af11e}, !- Handle
  Node 13,                                !- Name
  {fa247f9c-cabe-40a8-8b8b-2cd2fb45cf7c}, !- Inlet Port
  {0f61b32e-3247-4fce-9867-e1c471f9e462}; !- Outlet Port

OS:Connection,
  {b4cf38db-2efc-40ae-9bf7-aaa7b6dfec0e}, !- Handle
  {b0a64d33-a41c-44c4-a678-97c97c4f75c1}, !- Name
  {8c0f5217-d1ff-4993-8d6f-83ac7992291f}, !- Source Object
  3,                                      !- Outlet Port
  {809da8b0-0467-4f88-b425-4aba3d578e04}, !- Target Object
  34;                                     !- Inlet Port

OS:Connection,
  {fa247f9c-cabe-40a8-8b8b-2cd2fb45cf7c}, !- Handle
  {0f8eeded-bc1d-4c20-bf57-9a9ec10396d5}, !- Name
  {809da8b0-0467-4f88-b425-4aba3d578e04}, !- Source Object
  35,                                     !- Outlet Port
  {6c3e7b4e-2b99-44f4-9157-6d4f491af11e}, !- Target Object
  2;                                      !- Inlet Port

OS:Connection,
  {0f61b32e-3247-4fce-9867-e1c471f9e462}, !- Handle
  {6eae25de-794f-466f-a446-f01d9612d211}, !- Name
  {6c3e7b4e-2b99-44f4-9157-6d4f491af11e}, !- Source Object
  3,                                      !- Outlet Port
  {f0960e29-ae72-46d7-9562-436b59e02869}, !- Target Object
  3;                                      !- Inlet Port

OS:Node,
  {892c8fce-105b-41e6-8934-edaf03702020}, !- Handle
  Node 14,                                !- Name
  {e1735425-0deb-4886-9b80-fd151e6b9d17}, !- Inlet Port
  {24ae562b-957a-4bda-8abb-89d6749d791c}; !- Outlet Port

OS:Connection,
  {ce32d1ea-a529-4b74-858a-df485f93473d}, !- Handle
  {ebb0f8ac-72ba-4cf6-8e2e-d429e42f3e5f}, !- Name
  {04ad8db2-6eef-4dbf-843f-278e97fa27ae}, !- Source Object
  3,                                      !- Outlet Port
  {809da8b0-0467-4f88-b425-4aba3d578e04}, !- Target Object
  31;                                     !- Inlet Port

OS:Connection,
  {e1735425-0deb-4886-9b80-fd151e6b9d17}, !- Handle
  {d54adbef-4bbc-4b7a-9606-0f647e8b2c7f}, !- Name
  {809da8b0-0467-4f88-b425-4aba3d578e04}, !- Source Object
  32,                                     !- Outlet Port
  {892c8fce-105b-41e6-8934-edaf03702020}, !- Target Object
  2;                                      !- Inlet Port

OS:Connection,
  {24ae562b-957a-4bda-8abb-89d6749d791c}, !- Handle
  {4d26a869-4c2f-4d27-bc16-2308a55083c9}, !- Name
  {892c8fce-105b-41e6-8934-edaf03702020}, !- Source Object
  3,                                      !- Outlet Port
  {c3d28442-1a62-43c7-8d18-94c3074fb051}, !- Target Object
  3;                                      !- Inlet Port

